*SPEF "ieee 1481-1999"
*DESIGN "full_adder"
*DATE "11:11:11 Fri 11 11, 1111"
*VENDOR "OpenRCX"
*PROGRAM "Parallel Extraction"
*VERSION "1.0"
*DESIGN_FLOW "NAME_SCOPE LOCAL" "PIN_CAP NONE"
*DIVIDER /
*DELIMITER :
*BUS_DELIMITER []
*T_UNIT 1 NS
*C_UNIT 1 PF
*R_UNIT 1 OHM
*L_UNIT 1 HENRY

*NAME_MAP
*3 a
*4 b
*5 c
*6 carry_in
*7 carry_out
*8 _0_
*9 _1_
*10 _2_
*11 net1
*12 net2
*13 net3
*14 net4
*15 net5
*16 FILLER_0_0_15
*17 FILLER_0_0_27
*18 FILLER_0_0_29
*19 FILLER_0_0_3
*20 FILLER_0_0_41
*21 FILLER_0_0_53
*22 FILLER_0_0_57
*23 FILLER_0_0_69
*24 FILLER_0_1_15
*25 FILLER_0_1_27
*26 FILLER_0_1_3
*27 FILLER_0_1_39
*28 FILLER_0_1_51
*29 FILLER_0_1_55
*30 FILLER_0_1_57
*31 FILLER_0_1_69
*32 FILLER_0_2_15
*33 FILLER_0_2_27
*34 FILLER_0_2_29
*35 FILLER_0_2_3
*36 FILLER_0_2_41
*37 FILLER_0_2_53
*38 FILLER_0_2_65
*39 FILLER_0_2_77
*40 FILLER_0_3_15
*41 FILLER_0_3_27
*42 FILLER_0_3_3
*43 FILLER_0_3_39
*44 FILLER_0_3_51
*45 FILLER_0_3_55
*46 FILLER_0_3_57
*47 FILLER_0_3_69
*48 FILLER_0_4_18
*49 FILLER_0_4_26
*50 FILLER_0_4_29
*51 FILLER_0_4_42
*52 FILLER_0_4_54
*53 FILLER_0_4_6
*54 FILLER_0_4_66
*55 FILLER_0_4_78
*56 FILLER_0_5_18
*57 FILLER_0_5_30
*58 FILLER_0_5_50
*59 FILLER_0_5_57
*60 FILLER_0_5_6
*61 FILLER_0_5_69
*62 FILLER_0_6_18
*63 FILLER_0_6_26
*64 FILLER_0_6_29
*65 FILLER_0_6_37
*66 FILLER_0_6_42
*67 FILLER_0_6_54
*68 FILLER_0_6_6
*69 FILLER_0_6_66
*70 FILLER_0_6_74
*71 FILLER_0_7_15
*72 FILLER_0_7_27
*73 FILLER_0_7_3
*74 FILLER_0_7_39
*75 FILLER_0_7_51
*76 FILLER_0_7_55
*77 FILLER_0_7_57
*78 FILLER_0_7_69
*79 FILLER_0_8_15
*80 FILLER_0_8_27
*81 FILLER_0_8_29
*82 FILLER_0_8_3
*83 FILLER_0_8_41
*84 FILLER_0_8_53
*85 FILLER_0_8_65
*86 FILLER_0_8_77
*87 FILLER_0_9_15
*88 FILLER_0_9_27
*89 FILLER_0_9_29
*90 FILLER_0_9_3
*91 FILLER_0_9_41
*92 FILLER_0_9_53
*93 FILLER_0_9_57
*94 FILLER_0_9_69
*95 PHY_EDGE_ROW_0_Left_10
*96 PHY_EDGE_ROW_0_Right_0
*97 PHY_EDGE_ROW_1_Left_11
*98 PHY_EDGE_ROW_1_Right_1
*99 PHY_EDGE_ROW_2_Left_12
*100 PHY_EDGE_ROW_2_Right_2
*101 PHY_EDGE_ROW_3_Left_13
*102 PHY_EDGE_ROW_3_Right_3
*103 PHY_EDGE_ROW_4_Left_14
*104 PHY_EDGE_ROW_4_Right_4
*105 PHY_EDGE_ROW_5_Left_15
*106 PHY_EDGE_ROW_5_Right_5
*107 PHY_EDGE_ROW_6_Left_16
*108 PHY_EDGE_ROW_6_Right_6
*109 PHY_EDGE_ROW_7_Left_17
*110 PHY_EDGE_ROW_7_Right_7
*111 PHY_EDGE_ROW_8_Left_18
*112 PHY_EDGE_ROW_8_Right_8
*113 PHY_EDGE_ROW_9_Left_19
*114 PHY_EDGE_ROW_9_Right_9
*115 TAP_TAPCELL_ROW_0_20
*116 TAP_TAPCELL_ROW_0_21
*117 TAP_TAPCELL_ROW_1_22
*118 TAP_TAPCELL_ROW_2_23
*119 TAP_TAPCELL_ROW_3_24
*120 TAP_TAPCELL_ROW_4_25
*121 TAP_TAPCELL_ROW_5_26
*122 TAP_TAPCELL_ROW_6_27
*123 TAP_TAPCELL_ROW_7_28
*124 TAP_TAPCELL_ROW_8_29
*125 TAP_TAPCELL_ROW_9_30
*126 TAP_TAPCELL_ROW_9_31
*127 _3_
*128 _4_
*129 _5_
*130 _6_
*131 _7_
*132 input1
*133 input2
*134 input3
*135 output4
*136 output5

*PORTS
a I
b I
c O
carry_in I
carry_out O

*D_NET *3 0.000665095
*CONN
*P a I
*I *132:A I *D sky130_fd_sc_hd__buf_1
*CAP
1 a 0.000315637
2 *132:A 0.000315637
3 *132:A *134:A 3.38206e-05
*RES
1 a *132:A 21.7625 
*END

*D_NET *4 0.000566232
*CONN
*P b I
*I *133:A I *D sky130_fd_sc_hd__buf_1
*CAP
1 b 0.000266205
2 *133:A 0.000266205
3 *133:A *134:A 3.38206e-05
*RES
1 b *133:A 18.73 
*END

*D_NET *5 0.000720454
*CONN
*P c O
*I *135:X O *D sky130_fd_sc_hd__buf_2
*CAP
1 c 0.000335517
2 *135:X 0.000335517
3 c carry_out 4.94193e-05
*RES
1 *135:X c 18.8021 
*END

*D_NET *6 0.000637561
*CONN
*P carry_in I
*I *134:A I *D sky130_fd_sc_hd__buf_1
*CAP
1 carry_in 0.00028496
2 *134:A 0.00028496
3 *132:A *134:A 3.38206e-05
4 *133:A *134:A 3.38206e-05
*RES
1 carry_in *134:A 21.4589 
*END

*D_NET *7 0.000651824
*CONN
*P carry_out O
*I *136:X O *D sky130_fd_sc_hd__clkbuf_4
*CAP
1 carry_out 0.000301202
2 *136:X 0.000301202
3 c carry_out 4.94193e-05
*RES
1 *136:X carry_out 19.6745 
*END

*D_NET *8 0.000231987
*CONN
*I *130:A1 I *D sky130_fd_sc_hd__o21ai_1
*I *127:Y O *D sky130_fd_sc_hd__inv_2
*CAP
1 *130:A1 3.20252e-05
2 *127:Y 3.20252e-05
3 *130:A1 *127:A 5.1569e-05
4 *130:A1 *135:A 1.62025e-05
5 *130:A1 *136:A 0.000100165
*RES
1 *127:Y *130:A1 19.975 
*END

*D_NET *9 0.000899545
*CONN
*I *130:A2 I *D sky130_fd_sc_hd__o21ai_1
*I *131:B I *D sky130_fd_sc_hd__xnor2_1
*I *128:Y O *D sky130_fd_sc_hd__xnor2_1
*CAP
1 *130:A2 0.000113529
2 *131:B 9.78561e-05
3 *128:Y 0.000119729
4 *9:12 0.000331114
5 *130:A2 *130:B1 2.12733e-05
6 *130:A2 *135:A 0.000143633
7 *131:B *127:A 6.63598e-05
8 *131:B *130:B1 6.05161e-06
*RES
1 *128:Y *9:12 19.8714 
2 *9:12 *131:B 11.1036 
3 *9:12 *130:A2 11.0679 
*END

*D_NET *10 0.00047374
*CONN
*I *130:B1 I *D sky130_fd_sc_hd__o21ai_1
*I *129:Y O *D sky130_fd_sc_hd__nand2_1
*CAP
1 *130:B1 0.000145622
2 *129:Y 0.000145622
3 *130:B1 *127:A 9.84729e-05
4 *130:B1 *135:A 5.66971e-05
5 *130:A2 *130:B1 2.12733e-05
6 *131:B *130:B1 6.05161e-06
*RES
1 *129:Y *130:B1 30.4929 
*END

*D_NET *11 0.00355516
*CONN
*I *128:B I *D sky130_fd_sc_hd__xnor2_1
*I *129:B I *D sky130_fd_sc_hd__nand2_1
*I *132:X O *D sky130_fd_sc_hd__buf_1
*CAP
1 *128:B 0.000124615
2 *129:B 0.000366902
3 *132:X 0.00108549
4 *11:6 0.001577
5 *128:B *128:A 2.78576e-05
6 *129:B *128:A 7.5802e-05
7 *129:B *129:A 0.000245118
8 *11:6 *128:A 5.23735e-05
*RES
1 *132:X *11:6 22.1571 
2 *11:6 *129:B 25.3714 
3 *11:6 *128:B 11.2821 
*END

*D_NET *12 0.00330913
*CONN
*I *127:A I *D sky130_fd_sc_hd__inv_2
*I *131:A I *D sky130_fd_sc_hd__xnor2_1
*I *133:X O *D sky130_fd_sc_hd__buf_1
*CAP
1 *127:A 0.00014949
2 *131:A 0
3 *133:X 0.00122243
4 *12:14 0.00137192
5 *127:A *135:A 0.000140606
6 *127:A *136:A 6.62302e-05
7 *12:14 *129:A 0.000124083
8 *12:14 *13:8 1.7964e-05
9 *130:A1 *127:A 5.1569e-05
10 *130:B1 *127:A 9.84729e-05
11 *131:B *127:A 6.63598e-05
*RES
1 *133:X *12:14 33.7464 
2 *12:14 *131:A 9.3 
3 *12:14 *127:A 14.1036 
*END

*D_NET *13 0.00363059
*CONN
*I *129:A I *D sky130_fd_sc_hd__nand2_1
*I *128:A I *D sky130_fd_sc_hd__xnor2_1
*I *134:X O *D sky130_fd_sc_hd__buf_1
*CAP
1 *129:A 0.000336696
2 *128:A 0.000154987
3 *134:X 0.00105201
4 *13:8 0.00154369
5 *128:B *128:A 2.78576e-05
6 *129:B *128:A 7.5802e-05
7 *129:B *129:A 0.000245118
8 *11:6 *128:A 5.23735e-05
9 *12:14 *129:A 0.000124083
10 *12:14 *13:8 1.7964e-05
*RES
1 *134:X *13:8 25.8357 
2 *13:8 *128:A 17.1036 
3 *13:8 *129:A 20.6929 
*END

*D_NET *14 0.00222943
*CONN
*I *135:A I *D sky130_fd_sc_hd__buf_2
*I *131:Y O *D sky130_fd_sc_hd__xnor2_1
*CAP
1 *135:A 0.000690956
2 *131:Y 0.000690956
3 *135:A *136:A 0.000490379
4 *127:A *135:A 0.000140606
5 *130:A1 *135:A 1.62025e-05
6 *130:A2 *135:A 0.000143633
7 *130:B1 *135:A 5.66971e-05
*RES
1 *131:Y *135:A 33.9571 
*END

*D_NET *15 0.00275459
*CONN
*I *136:A I *D sky130_fd_sc_hd__clkbuf_4
*I *130:Y O *D sky130_fd_sc_hd__o21ai_1
*CAP
1 *136:A 0.00104891
2 *130:Y 0.00104891
3 *127:A *136:A 6.62302e-05
4 *130:A1 *136:A 0.000100165
5 *135:A *136:A 0.000490379
*RES
1 *130:Y *136:A 42.6179 
*END
